$ WAVEWATCH III Grid output post-processing
$ -----------------------------------------
  20190101 00000  3600. 770
$
 9
$
  -1
$  
  2
  2 81
