$ WAVEWATCH III Grid output post-processing
$ -----------------------------------------
 20190107 090000 3600. 1
 N
 HS
$ 1 0
$ 1 120 1 1 120 1 F F
 3 0
1 180 1 120 3 1

